<?xml version='1.0' encoding='utf-8'?>
<routes xmlns:xsi="http://www.w3.org/2001/XMLSchema-instance" xsi:noNamespaceSchemaLocation="http://sumo.dlr.de/xsd/routes_file.xsd">
    <person id="0" depart="0.00">
        <ride from="E14" to="E17" lines="taxi" />
    </person>
    <person id="1" depart="23.62">
        <ride from="A3B3" to="D1C1" lines="taxi" />
    </person>
    <person id="2" depart="233.24">
        <ride from="A3B3" to="E12" lines="taxi" />
    </person>
    <person id="3" depart="430.12">
        <ride from="B3C3" to="E13" lines="taxi" />
    </person>
    <person id="4" depart="453.78">
        <ride from="E17" to="E12" lines="taxi" />
    </person>
    <person id="5" depart="641.74">
        <ride from="B2C2" to="E17" lines="taxi" />
    </person>
    <person id="6" depart="838.52">
        <ride from="B2A2" to="B1A1" lines="taxi" />
    </person>
    <person id="7" depart="918.16">
        <ride from="C2B2" to="B3A3" lines="taxi" />
    </person>
    <person id="8" depart="944.15">
        <ride from="E18" to="A3A4" lines="taxi" />
    </person>
    <person id="9" depart="967.73">
        <ride from="C3D3" to="D1C1" lines="taxi" />
    </person>
    <person id="10" depart="990.69">
        <ride from="A3A4" to="C3D3" lines="taxi" />
    </person>
    <person id="11" depart="1067.25">
        <ride from="E12" to="C3C2" lines="taxi" />
    </person>
    <person id="12" depart="1265.62">
        <ride from="A2A3" to="E16" lines="taxi" />
    </person>
    <person id="13" depart="1290.88">
        <ride from="D4D3" to="C2D2" lines="taxi" />
    </person>
    <person id="14" depart="1506.30">
        <ride from="A1B1" to="B2B3" lines="taxi" />
    </person>
    <person id="15" depart="1532.32">
        <ride from="C3C2" to="B3B2" lines="taxi" />
    </person>
    <person id="16" depart="1558.69">
        <ride from="E16" to="B1C1" lines="taxi" />
    </person>
    <person id="17" depart="1585.52">
        <ride from="E13" to="A1A2" lines="taxi" />
    </person>
    <person id="18" depart="1662.56">
        <ride from="C3B3" to="D1C1" lines="taxi" />
    </person>
    <person id="19" depart="1735.39">
        <ride from="C3B3" to="D3D4" lines="taxi" />
    </person>
    <person id="20" depart="1952.85">
        <ride from="B1C1" to="D1C1" lines="taxi" />
    </person>
    <person id="21" depart="2158.25">
        <ride from="B2A2" to="E14" lines="taxi" />
    </person>
    <person id="22" depart="2181.57">
        <ride from="B3C3" to="A4A3" lines="taxi" />
    </person>
    <person id="23" depart="2389.09">
        <ride from="C3B3" to="D1C1" lines="taxi" />
    </person>
    <person id="24" depart="2469.24">
        <ride from="D2D1" to="B1B2" lines="taxi" />
    </person>
    <person id="25" depart="2495.85">
        <ride from="A3A2" to="E15" lines="taxi" />
    </person>
    <person id="26" depart="2567.36">
        <ride from="A2A3" to="C4B4" lines="taxi" />
    </person>
    <person id="27" depart="2759.95">
        <ride from="D2D3" to="B3B2" lines="taxi" />
    </person>
    <person id="28" depart="2840.72">
        <ride from="B2A2" to="C1B1" lines="taxi" />
    </person>
    <person id="29" depart="2864.54">
        <ride from="B2A2" to="C1D1" lines="taxi" />
    </person>
    <person id="30" depart="3066.10">
        <ride from="D2C2" to="A3B3" lines="taxi" />
    </person>
    <person id="31" depart="3147.07">
        <ride from="A4A3" to="B3B2" lines="taxi" />
    </person>
    <person id="32" depart="3174.56">
        <ride from="C2D2" to="C3C2" lines="taxi" />
    </person>
    <person id="33" depart="3243.42">
        <ride from="D4D3" to="B4B3" lines="taxi" />
    </person>
    <person id="34" depart="3269.06">
        <ride from="E15" to="D4D3" lines="taxi" />
    </person>
    <person id="35" depart="3345.50">
        <ride from="A2B2" to="B1C1" lines="taxi" />
    </person>
    <person id="36" depart="3565.35">
        <ride from="C3B3" to="C2D2" lines="taxi" />
    </person>
    <person id="37" depart="3779.78">
        <ride from="B4A4" to="D1D2" lines="taxi" />
    </person>
    <person id="38" depart="3964.36">
        <ride from="E18" to="B1B2" lines="taxi" />
    </person>
    <person id="39" depart="4043.39">
        <ride from="B4A4" to="A3A4" lines="taxi" />
    </person>
    <person id="40" depart="4117.41">
        <ride from="C3D3" to="E11" lines="taxi" />
    </person>
    <person id="41" depart="4332.45">
        <ride from="C1C2" to="E18" lines="taxi" />
    </person>
    <person id="42" depart="4357.49">
        <ride from="D1C1" to="B4B3" lines="taxi" />
    </person>
    <person id="43" depart="4437.61">
        <ride from="E12" to="B2B1" lines="taxi" />
    </person>
    <person id="44" depart="4460.87">
        <ride from="B4C4" to="B2C2" lines="taxi" />
    </person>
    <person id="45" depart="4679.01">
        <ride from="A3A4" to="D3D4" lines="taxi" />
    </person>
    <person id="46" depart="4871.98">
        <ride from="B4A4" to="E18" lines="taxi" />
    </person>
    <person id="47" depart="4952.66">
        <ride from="E16" to="D4D3" lines="taxi" />
    </person>
    <person id="48" depart="5023.75">
        <ride from="A1B1" to="A2B2" lines="taxi" />
    </person>
    <person id="49" depart="5046.68">
        <ride from="D2C2" to="B3B2" lines="taxi" />
    </person>
    <person id="50" depart="5074.07">
        <ride from="C1B1" to="A2A1" lines="taxi" />
    </person>
    <person id="51" depart="5097.21">
        <ride from="B4A4" to="A3A2" lines="taxi" />
    </person>
    <person id="52" depart="5121.04">
        <ride from="C1C2" to="B3B4" lines="taxi" />
    </person>
    <person id="53" depart="5148.18">
        <ride from="B2C2" to="C2C1" lines="taxi" />
    </person>
    <person id="54" depart="5336.23">
        <ride from="A3A4" to="A4B4" lines="taxi" />
    </person>
    <person id="55" depart="5542.22">
        <ride from="C4C3" to="C2C3" lines="taxi" />
    </person>
    <person id="56" depart="5611.54">
        <ride from="C1D1" to="B4A4" lines="taxi" />
    </person>
    <person id="57" depart="5679.36">
        <ride from="D2D1" to="E14" lines="taxi" />
    </person>
    <person id="58" depart="5868.16">
        <ride from="B3B4" to="D2D1" lines="taxi" />
    </person>
    <person id="59" depart="6050.52">
        <ride from="E14" to="A4B4" lines="taxi" />
    </person>
    <person id="60" depart="6119.08">
        <ride from="E14" to="E16" lines="taxi" />
    </person>
    <person id="61" depart="6318.50">
        <ride from="D1D2" to="C4D4" lines="taxi" />
    </person>
    <person id="62" depart="6535.92">
        <ride from="B3C3" to="D4D3" lines="taxi" />
    </person>
    <person id="63" depart="6607.06">
        <ride from="B3B2" to="B3B4" lines="taxi" />
    </person>
    <person id="64" depart="6677.42">
        <ride from="C1C2" to="A2A3" lines="taxi" />
    </person>
    <person id="65" depart="6750.23">
        <ride from="E12" to="B1C1" lines="taxi" />
    </person>
    <person id="66" depart="6932.40">
        <ride from="C2C3" to="C1C2" lines="taxi" />
    </person>
    <person id="67" depart="6955.20">
        <ride from="B2A2" to="B2B1" lines="taxi" />
    </person>
    <person id="68" depart="6978.95">
        <ride from="A4A3" to="C3D3" lines="taxi" />
    </person>
    <person id="69" depart="7048.55">
        <ride from="D3C3" to="B3C3" lines="taxi" />
    </person>
    <person id="70" depart="7119.80">
        <ride from="D3D2" to="C4D4" lines="taxi" />
    </person>
    <person id="71" depart="7303.71">
        <ride from="E14" to="C1D1" lines="taxi" />
    </person>
    <person id="72" depart="7331.06">
        <ride from="B2A2" to="B4A4" lines="taxi" />
    </person>
    <person id="73" depart="7354.39">
        <ride from="A3A4" to="A1A2" lines="taxi" />
    </person>
    <person id="74" depart="7381.21">
        <ride from="C1B1" to="C1C2" lines="taxi" />
    </person>
    <person id="75" depart="7448.75">
        <ride from="E15" to="D3D2" lines="taxi" />
    </person>
    <person id="76" depart="7520.52">
        <ride from="C2D2" to="D1D2" lines="taxi" />
    </person>
    <person id="77" depart="7727.00">
        <ride from="B1A1" to="A4A3" lines="taxi" />
    </person>
    <person id="78" depart="7750.98">
        <ride from="C1B1" to="D4C4" lines="taxi" />
    </person>
    <person id="79" depart="7952.67">
        <ride from="E15" to="B3A3" lines="taxi" />
    </person>
    <person id="80" depart="7975.42">
        <ride from="A3B3" to="C4B4" lines="taxi" />
    </person>
    <person id="81" depart="8161.72">
        <ride from="C1B1" to="B4B3" lines="taxi" />
    </person>
    <person id="82" depart="8184.56">
        <ride from="B4C4" to="E13" lines="taxi" />
    </person>
    <person id="83" depart="8209.08">
        <ride from="E14" to="B1B2" lines="taxi" />
    </person>
    <person id="84" depart="8412.86">
        <ride from="B3B4" to="D2C2" lines="taxi" />
    </person>
    <person id="85" depart="8490.22">
        <ride from="B2B3" to="E13" lines="taxi" />
    </person>
    <person id="86" depart="8571.74">
        <ride from="B3B2" to="B4B3" lines="taxi" />
    </person>
    <person id="87" depart="8764.31">
        <ride from="D2D3" to="B1C1" lines="taxi" />
    </person>
    <person id="88" depart="8790.17">
        <ride from="D1D2" to="C2C3" lines="taxi" />
    </person>
    <person id="89" depart="8871.60">
        <ride from="C4C3" to="C1C2" lines="taxi" />
    </person>
    <person id="90" depart="8948.42">
        <ride from="E14" to="E18" lines="taxi" />
    </person>
    <person id="91" depart="8973.61">
        <ride from="B3B2" to="E12" lines="taxi" />
    </person>
    <person id="92" depart="9000.78">
        <ride from="B4B3" to="D1D2" lines="taxi" />
    </person>
    <person id="93" depart="9072.55">
        <ride from="E14" to="D1D2" lines="taxi" />
    </person>
    <person id="94" depart="9280.69">
        <ride from="C1D1" to="A1B1" lines="taxi" />
    </person>
    <person id="95" depart="9481.85">
        <ride from="B2C2" to="A2A3" lines="taxi" />
    </person>
    <person id="96" depart="9673.82">
        <ride from="B2A2" to="A2A1" lines="taxi" />
    </person>
    <person id="97" depart="9697.65">
        <ride from="B2A2" to="E12" lines="taxi" />
    </person>
    <person id="98" depart="9883.86">
        <ride from="E11" to="A3B3" lines="taxi" />
    </person>
    <person id="99" depart="9909.95">
        <ride from="C4D4" to="B2C2" lines="taxi" />
    </person>
    <person id="100" depart="10124.07">
        <ride from="D2D3" to="B1B2" lines="taxi" />
    </person>
    <person id="101" depart="10205.15">
        <ride from="B4C4" to="C1B1" lines="taxi" />
    </person>
    <person id="102" depart="10230.82">
        <ride from="A1A2" to="E15" lines="taxi" />
    </person>
    <person id="103" depart="10253.34">
        <ride from="A1B1" to="D1C1" lines="taxi" />
    </person>
    <person id="104" depart="10472.53">
        <ride from="A3A2" to="D4D3" lines="taxi" />
    </person>
    <person id="105" depart="10548.31">
        <ride from="D3D2" to="A3B3" lines="taxi" />
    </person>
    <person id="106" depart="10571.37">
        <ride from="C2C1" to="B3B4" lines="taxi" />
    </person>
    <person id="107" depart="10752.81">
        <ride from="B1A1" to="D4C4" lines="taxi" />
    </person>
    <person id="108" depart="10938.73">
        <ride from="C3B3" to="B3A3" lines="taxi" />
    </person>
    <person id="109" depart="11011.70">
        <ride from="D4D3" to="E16" lines="taxi" />
    </person>
    <person id="110" depart="11082.35">
        <ride from="A2B2" to="E16" lines="taxi" />
    </person>
    <person id="111" depart="11106.62">
        <ride from="D1D2" to="B1C1" lines="taxi" />
    </person>
    <person id="112" depart="11316.60">
        <ride from="B3C3" to="C2C3" lines="taxi" />
    </person>
    <person id="113" depart="11343.51">
        <ride from="D2C2" to="D3D4" lines="taxi" />
    </person>
    <person id="114" depart="11560.48">
        <ride from="E17" to="D3C3" lines="taxi" />
    </person>
    <person id="115" depart="11775.05">
        <ride from="A2B2" to="C2C3" lines="taxi" />
    </person>
    <person id="116" depart="11844.94">
        <ride from="A2A3" to="D2C2" lines="taxi" />
    </person>
    <person id="117" depart="11925.52">
        <ride from="B1A1" to="E12" lines="taxi" />
    </person>
    <person id="118" depart="11949.02">
        <ride from="A1A2" to="C1C2" lines="taxi" />
    </person>
    <person id="119" depart="12028.82">
        <ride from="C1D1" to="C3C4" lines="taxi" />
    </person>
    <person id="120" depart="12054.62">
        <ride from="D2D1" to="D2C2" lines="taxi" />
    </person>
    <person id="121" depart="12135.09">
        <ride from="C2C3" to="C3D3" lines="taxi" />
    </person>
    <person id="122" depart="12212.21">
        <ride from="A3A2" to="D1C1" lines="taxi" />
    </person>
    <person id="123" depart="12405.46">
        <ride from="C2C3" to="B1B2" lines="taxi" />
    </person>
    <person id="124" depart="12475.64">
        <ride from="E17" to="D4D3" lines="taxi" />
    </person>
    <person id="125" depart="12501.12">
        <ride from="D1C1" to="E16" lines="taxi" />
    </person>
    <person id="126" depart="12575.16">
        <ride from="C3C2" to="A4A3" lines="taxi" />
    </person>
    <person id="127" depart="12656.16">
        <ride from="B4C4" to="E11" lines="taxi" />
    </person>
    <person id="128" depart="12682.20">
        <ride from="D2D3" to="D1C1" lines="taxi" />
    </person>
    <person id="129" depart="12889.68">
        <ride from="E18" to="B4A4" lines="taxi" />
    </person>
    <person id="130" depart="13077.56">
        <ride from="A3B3" to="A4A3" lines="taxi" />
    </person>
    <person id="131" depart="13294.39">
        <ride from="C2C1" to="E14" lines="taxi" />
    </person>
    <person id="132" depart="13508.31">
        <ride from="B2B3" to="C4B4" lines="taxi" />
    </person>
    <person id="133" depart="13700.68">
        <ride from="A4A3" to="C4C3" lines="taxi" />
    </person>
    <person id="134" depart="13778.64">
        <ride from="C2C1" to="C4B4" lines="taxi" />
    </person>
    <person id="135" depart="13803.24">
        <ride from="B3B4" to="D4D3" lines="taxi" />
    </person>
    <person id="136" depart="14019.35">
        <ride from="C2D2" to="B1B2" lines="taxi" />
    </person>
    <person id="137" depart="14092.94">
        <ride from="B2C2" to="B3B4" lines="taxi" />
    </person>
    <person id="138" depart="14164.75">
        <ride from="A1B1" to="E18" lines="taxi" />
    </person>
    <person id="139" depart="14369.01">
        <ride from="C2B2" to="A2B2" lines="taxi" />
    </person>
    <person id="140" depart="14443.15">
        <ride from="C4B4" to="C1C2" lines="taxi" />
    </person>
    <person id="141" depart="14522.55">
        <ride from="D2D3" to="B4B3" lines="taxi" />
    </person>
    <person id="142" depart="14548.35">
        <ride from="A2B2" to="A4A3" lines="taxi" />
    </person>
    <person id="143" depart="14753.66">
        <ride from="C4D4" to="B4B3" lines="taxi" />
    </person>
    <person id="144" depart="14779.53">
        <ride from="C3D3" to="E13" lines="taxi" />
    </person>
    <person id="145" depart="14802.76">
        <ride from="D2C2" to="A2A3" lines="taxi" />
    </person>
    <person id="146" depart="14879.43">
        <ride from="E16" to="D1D2" lines="taxi" />
    </person>
    <person id="147" depart="14953.15">
        <ride from="A3A2" to="E14" lines="taxi" />
    </person>
    <person id="148" depart="14979.24">
        <ride from="B2B1" to="B3B4" lines="taxi" />
    </person>
    <person id="149" depart="15050.40">
        <ride from="C3B3" to="B4C4" lines="taxi" />
    </person>
    <person id="150" depart="15077.37">
        <ride from="B2A2" to="B1A1" lines="taxi" />
    </person>
    <person id="151" depart="15148.15">
        <ride from="A3A2" to="E12" lines="taxi" />
    </person>
    <person id="152" depart="15346.73">
        <ride from="A2A3" to="B1B2" lines="taxi" />
    </person>
    <person id="153" depart="15371.51">
        <ride from="B3C3" to="D2C2" lines="taxi" />
    </person>
    <person id="154" depart="15572.76">
        <ride from="A2A3" to="C1D1" lines="taxi" />
    </person>
    <person id="155" depart="15654.51">
        <ride from="B3B4" to="B2C2" lines="taxi" />
    </person>
    <person id="156" depart="15870.19">
        <ride from="C2B2" to="B2B3" lines="taxi" />
    </person>
    <person id="157" depart="16068.03">
        <ride from="C2C1" to="A1B1" lines="taxi" />
    </person>
    <person id="158" depart="16142.28">
        <ride from="D3D4" to="A3B3" lines="taxi" />
    </person>
    <person id="159" depart="16333.37">
        <ride from="A3A4" to="D2C2" lines="taxi" />
    </person>
    <person id="160" depart="16410.27">
        <ride from="A3A2" to="B4B3" lines="taxi" />
    </person>
    <person id="161" depart="16436.34">
        <ride from="D1C1" to="C1D1" lines="taxi" />
    </person>
    <person id="162" depart="16508.63">
        <ride from="D2C2" to="C4D4" lines="taxi" />
    </person>
    <person id="163" depart="16531.89">
        <ride from="B3C3" to="E13" lines="taxi" />
    </person>
    <person id="164" depart="16557.92">
        <ride from="C2D2" to="B1A1" lines="taxi" />
    </person>
    <person id="165" depart="16630.38">
        <ride from="E14" to="C2C1" lines="taxi" />
    </person>
    <person id="166" depart="16653.92">
        <ride from="C1C2" to="C2C3" lines="taxi" />
    </person>
    <person id="167" depart="16871.76">
        <ride from="C2C1" to="C3B3" lines="taxi" />
    </person>
    <person id="168" depart="17066.97">
        <ride from="E17" to="A1A2" lines="taxi" />
    </person>
    <person id="169" depart="17145.78">
        <ride from="E18" to="C3C2" lines="taxi" />
    </person>
    <person id="170" depart="17221.35">
        <ride from="A1A2" to="A2A1" lines="taxi" />
    </person>
    <person id="171" depart="17437.26">
        <ride from="A4A3" to="B4A4" lines="taxi" />
    </person>
    <person id="172" depart="17511.30">
        <ride from="C1B1" to="D2D1" lines="taxi" />
    </person>
    <person id="173" depart="17588.83">
        <ride from="E17" to="C2D2" lines="taxi" />
    </person>
    <person id="174" depart="17775.44">
        <ride from="A2A3" to="C2D2" lines="taxi" />
    </person>
    <person id="175" depart="17976.80">
        <ride from="C1C2" to="D4D3" lines="taxi" />
    </person>
    <person id="176" depart="18183.32">
        <ride from="C2C3" to="B3A3" lines="taxi" />
    </person>
    <person id="177" depart="18252.86">
        <ride from="E13" to="B2A2" lines="taxi" />
    </person>
    <person id="178" depart="18276.66">
        <ride from="C1D1" to="D3D2" lines="taxi" />
    </person>
    <person id="179" depart="18349.06">
        <ride from="C3D3" to="D2D3" lines="taxi" />
    </person>
    <person id="180" depart="18427.84">
        <ride from="A3A4" to="C3B3" lines="taxi" />
    </person>
    <person id="181" depart="18507.86">
        <ride from="A1B1" to="C2C3" lines="taxi" />
    </person>
    <person id="182" depart="18709.44">
        <ride from="C1B1" to="E17" lines="taxi" />
    </person>
    <person id="183" depart="18892.18">
        <ride from="C3C2" to="D2D1" lines="taxi" />
    </person>
    <person id="184" depart="18919.43">
        <ride from="B2A2" to="E16" lines="taxi" />
    </person>
    <person id="185" depart="18945.04">
        <ride from="D2D3" to="A1B1" lines="taxi" />
    </person>
    <person id="186" depart="19022.58">
        <ride from="D2C2" to="D4D3" lines="taxi" />
    </person>
    <person id="187" depart="19100.57">
        <ride from="B3B2" to="D2D3" lines="taxi" />
    </person>
    <person id="188" depart="19126.10">
        <ride from="A3A2" to="C3C2" lines="taxi" />
    </person>
    <person id="189" depart="19152.49">
        <ride from="A3B3" to="B1A1" lines="taxi" />
    </person>
    <person id="190" depart="19177.88">
        <ride from="D3D4" to="C4B4" lines="taxi" />
    </person>
    <person id="191" depart="19394.21">
        <ride from="C4C3" to="B3B2" lines="taxi" />
    </person>
    <person id="192" depart="19582.14">
        <ride from="C3B3" to="C2C3" lines="taxi" />
    </person>
    <person id="193" depart="19771.85">
        <ride from="B3A3" to="B1A1" lines="taxi" />
    </person>
    <person id="194" depart="19852.11">
        <ride from="B1B2" to="A3A2" lines="taxi" />
    </person>
    <person id="195" depart="19878.59">
        <ride from="B3A3" to="A2A3" lines="taxi" />
    </person>
    <person id="196" depart="19902.82">
        <ride from="B3B4" to="A2B2" lines="taxi" />
    </person>
    <person id="197" depart="19971.36">
        <ride from="C2C1" to="B1C1" lines="taxi" />
    </person>
    <person id="198" depart="19998.11">
        <ride from="B2B1" to="C3D3" lines="taxi" />
    </person>
    <person id="199" depart="20022.77">
        <ride from="A2A1" to="B4C4" lines="taxi" />
    </person>
</routes>