<?xml version='1.0' encoding='utf-8'?>
<routes xmlns:xsi="http://www.w3.org/2001/XMLSchema-instance" xsi:noNamespaceSchemaLocation="http://sumo.dlr.de/xsd/routes_file.xsd">
    <person id="0" depart="1">
        <ride from="1253111326" to="53561468" lines="taxi" />
    </person>
    <person id="1" depart="23">
        <ride from="371128537" to="886367121#6" lines="taxi" />
    </person>
    <person id="2" depart="33">
        <ride from="-371130049#4" to="344412436#1" lines="taxi" />
    </person>
    <person id="3" depart="34">
        <ride from="1157697968" to="53561468" lines="taxi" />
    </person>
    <person id="4" depart="45">
        <ride from="371128537" to="-344410516" lines="taxi" />
    </person>
    <person id="5" depart="51">
        <ride from="-495024963#8" to="1253111323" lines="taxi" />
    </person>
    <person id="6" depart="56">
        <ride from="280958022#1" to="-371139407#2" lines="taxi" />
    </person>
    <person id="7" depart="59">
        <ride from="371128537" to="1391556998" lines="taxi" />
    </person>
    <person id="8" depart="79">
        <ride from="884011753#8" to="1432317802" lines="taxi" />
    </person>
    <person id="9" depart="88">
        <ride from="-495024963#8" to="-371139407#2" lines="taxi" />
    </person>
    <person id="10" depart="96">
        <ride from="102678329#0" to="884011753#2" lines="taxi" />
    </person>
    <person id="11" depart="100">
        <ride from="344412436#1" to="-53561464#3" lines="taxi" />
    </person>
    <person id="12" depart="106">
        <ride from="-53561464#3" to="495024963#9" lines="taxi" />
    </person>
    <person id="13" depart="133">
        <ride from="102678319#2" to="1432317802" lines="taxi" />
    </person>
    <person id="14" depart="144">
        <ride from="102678329#1" to="-495024963#8" lines="taxi" />
    </person>
    <person id="15" depart="183">
        <ride from="-371128539#1" to="-25717852#1" lines="taxi" />
    </person>
    <person id="16" depart="199">
        <ride from="888532983#2" to="344412436#1" lines="taxi" />
    </person>
    <person id="17" depart="208">
        <ride from="-25718014#1" to="-25717814#1" lines="taxi" />
    </person>
    <person id="18" depart="213">
        <ride from="-25717814#0" to="-25717491" lines="taxi" />
    </person>
    <person id="19" depart="217">
        <ride from="776320079#1" to="-888532983#0" lines="taxi" />
    </person>
    <person id="20" depart="219">
        <ride from="-53561355#7" to="371128537" lines="taxi" />
    </person>
    <person id="21" depart="229">
        <ride from="775140683#1" to="1253111317" lines="taxi" />
    </person>
    <person id="22" depart="230">
        <ride from="-25717491" to="207839154#0" lines="taxi" />
    </person>
    <person id="23" depart="236">
        <ride from="371128542#1" to="495024963#9" lines="taxi" />
    </person>
    <person id="24" depart="238">
        <ride from="210983363" to="-344410516" lines="taxi" />
    </person>
    <person id="25" depart="244">
        <ride from="775140683#2" to="-371128539#1" lines="taxi" />
    </person>
    <person id="26" depart="245">
        <ride from="775140683#1" to="1391556998" lines="taxi" />
    </person>
    <person id="27" depart="246">
        <ride from="-25717855" to="1157843040" lines="taxi" />
    </person>
    <person id="28" depart="251">
        <ride from="280958022#1" to="1432317802" lines="taxi" />
    </person>
    <person id="29" depart="253">
        <ride from="-280958022#1" to="888532983#1" lines="taxi" />
    </person>
    <person id="30" depart="258">
        <ride from="775140683#2" to="402934743#0" lines="taxi" />
    </person>
    <person id="31" depart="268">
        <ride from="775140683#1" to="1253111326" lines="taxi" />
    </person>
    <person id="32" depart="269">
        <ride from="402934744#4" to="884011753#8" lines="taxi" />
    </person>
    <person id="33" depart="274">
        <ride from="53561467" to="-371139407#2" lines="taxi" />
    </person>
    <person id="34" depart="275">
        <ride from="775140683#2" to="765885882#1" lines="taxi" />
    </person>
    <person id="35" depart="277">
        <ride from="280958022#1" to="-371139407#3" lines="taxi" />
    </person>
    <person id="36" depart="285">
        <ride from="402934744#4" to="886367121#6" lines="taxi" />
    </person>
    <person id="37" depart="291">
        <ride from="495024961" to="775140683#2" lines="taxi" />
    </person>
    <person id="38" depart="291">
        <ride from="-102755442" to="-53561465#0" lines="taxi" />
    </person>
    <person id="39" depart="296">
        <ride from="25717715" to="371139406" lines="taxi" />
    </person>
    <person id="40" depart="305">
        <ride from="886367121#6" to="1253111326" lines="taxi" />
    </person>
    <person id="41" depart="308">
        <ride from="-371130049#4" to="371128542#0" lines="taxi" />
    </person>
    <person id="42" depart="310">
        <ride from="-53561355#7" to="-53561465#0" lines="taxi" />
    </person>
    <person id="43" depart="313">
        <ride from="25717422" to="53561468" lines="taxi" />
    </person>
    <person id="44" depart="315">
        <ride from="25717715" to="102678329#0" lines="taxi" />
    </person>
    <person id="45" depart="331">
        <ride from="886367121#5" to="272078615#1" lines="taxi" />
    </person>
    <person id="46" depart="350">
        <ride from="-1291941910" to="-371139409" lines="taxi" />
    </person>
    <person id="47" depart="356">
        <ride from="776320079#1" to="102678329#1" lines="taxi" />
    </person>
    <person id="48" depart="359">
        <ride from="765885882#1" to="1253111323" lines="taxi" />
    </person>
    <person id="49" depart="361">
        <ride from="-495024963#6" to="1391556998" lines="taxi" />
    </person>
    <person id="50" depart="364">
        <ride from="776320079#0" to="1157697968" lines="taxi" />
    </person>
    <person id="51" depart="364">
        <ride from="-857351219#0" to="371139406" lines="taxi" />
    </person>
    <person id="52" depart="364">
        <ride from="1253111317" to="53561436#0" lines="taxi" />
    </person>
    <person id="53" depart="364">
        <ride from="272078615#2" to="402934743#0" lines="taxi" />
    </person>
    <person id="54" depart="365">
        <ride from="25717491" to="884011753#4" lines="taxi" />
    </person>
    <person id="55" depart="365">
        <ride from="371128542#1" to="886367121#5" lines="taxi" />
    </person>
    <person id="56" depart="366">
        <ride from="207839154#0" to="210983363" lines="taxi" />
    </person>
    <person id="57" depart="366">
        <ride from="344412437#0" to="884011753#8" lines="taxi" />
    </person>
    <person id="58" depart="367">
        <ride from="-371128539#1" to="272078615#1" lines="taxi" />
    </person>
    <person id="59" depart="367">
        <ride from="-53561466" to="53561436#0" lines="taxi" />
    </person>
    <person id="60" depart="368">
        <ride from="344412436#1" to="-25717814#1" lines="taxi" />
    </person>
    <person id="61" depart="369">
        <ride from="53561436#0" to="53561468" lines="taxi" />
    </person>
    <person id="62" depart="369">
        <ride from="1253111317" to="-371139409" lines="taxi" />
    </person>
    <person id="63" depart="369">
        <ride from="775140683#2" to="-1291941910" lines="taxi" />
    </person>
    <person id="64" depart="370">
        <ride from="53561468" to="-344410516" lines="taxi" />
    </person>
    <person id="65" depart="370">
        <ride from="843239339" to="-344410516" lines="taxi" />
    </person>
    <person id="66" depart="371">
        <ride from="25717491" to="886367121#6" lines="taxi" />
    </person>
    <person id="67" depart="371">
        <ride from="280958022#1" to="-371139407#2" lines="taxi" />
    </person>
    <person id="68" depart="371">
        <ride from="25717715" to="-25717855" lines="taxi" />
    </person>
    <person id="69" depart="372">
        <ride from="371139406" to="272078615#2" lines="taxi" />
    </person>
    <person id="70" depart="372">
        <ride from="-25717814#0" to="280958022#1" lines="taxi" />
    </person>
    <person id="71" depart="372">
        <ride from="1157843040" to="371139406" lines="taxi" />
    </person>
    <person id="72" depart="372">
        <ride from="280958022#1" to="-1291941910" lines="taxi" />
    </person>
    <person id="73" depart="373">
        <ride from="1157843040" to="207839154#0" lines="taxi" />
    </person>
    <person id="74" depart="373">
        <ride from="102678329#0" to="53561468" lines="taxi" />
    </person>
    <person id="75" depart="373">
        <ride from="-25717852#1" to="-53561464#3" lines="taxi" />
    </person>
    <person id="76" depart="374">
        <ride from="207839154#0" to="1157843040" lines="taxi" />
    </person>
    <person id="77" depart="375">
        <ride from="-53561355#7" to="1157843040" lines="taxi" />
    </person>
    <person id="78" depart="375">
        <ride from="1253111317" to="-371139409" lines="taxi" />
    </person>
    <person id="79" depart="375">
        <ride from="371139406" to="53561466" lines="taxi" />
    </person>
    <person id="80" depart="375">
        <ride from="53561455#1" to="-25718014#1" lines="taxi" />
    </person>
    <person id="81" depart="377">
        <ride from="1157843040" to="25717715" lines="taxi" />
    </person>
    <person id="82" depart="378">
        <ride from="-1291941910" to="884011753#4" lines="taxi" />
    </person>
    <person id="83" depart="380">
        <ride from="402934744#5" to="344410516" lines="taxi" />
    </person>
    <person id="84" depart="380">
        <ride from="-53561355#7" to="776320079#0" lines="taxi" />
    </person>
    <person id="85" depart="381">
        <ride from="102678329#1" to="-53561355#7" lines="taxi" />
    </person>
    <person id="86" depart="382">
        <ride from="843239339" to="1253111317" lines="taxi" />
    </person>
    <person id="87" depart="383">
        <ride from="402934743#0" to="371128537" lines="taxi" />
    </person>
    <person id="88" depart="383">
        <ride from="53561407" to="776320079#1" lines="taxi" />
    </person>
    <person id="89" depart="384">
        <ride from="884011753#2" to="884011753#4" lines="taxi" />
    </person>
    <person id="90" depart="387">
        <ride from="843239339" to="25717422" lines="taxi" />
    </person>
    <person id="91" depart="388">
        <ride from="210983363" to="102678329#0" lines="taxi" />
    </person>
    <person id="92" depart="388">
        <ride from="207839154#0" to="888532983#1" lines="taxi" />
    </person>
    <person id="93" depart="388">
        <ride from="371139406" to="495024961" lines="taxi" />
    </person>
    <person id="94" depart="388">
        <ride from="775140683#2" to="25717422" lines="taxi" />
    </person>
    <person id="95" depart="389">
        <ride from="-371139407#2" to="371128542#0" lines="taxi" />
    </person>
    <person id="96" depart="389">
        <ride from="410537374" to="776320079#1" lines="taxi" />
    </person>
    <person id="97" depart="390">
        <ride from="765885882#1" to="888532983#1" lines="taxi" />
    </person>
    <person id="98" depart="392">
        <ride from="1253111326" to="-25717814#0" lines="taxi" />
    </person>
    <person id="99" depart="393">
        <ride from="884011753#4" to="402934744#5" lines="taxi" />
    </person>
    <person id="100" depart="393">
        <ride from="1253111326" to="371128542#0" lines="taxi" />
    </person>
    <person id="101" depart="394">
        <ride from="-371130049#4" to="410537374" lines="taxi" />
    </person>
    <person id="102" depart="396">
        <ride from="495024961" to="344410516" lines="taxi" />
    </person>
    <person id="103" depart="397">
        <ride from="402934743#0" to="371128542#0" lines="taxi" />
    </person>
    <person id="104" depart="398">
        <ride from="884011753#4" to="888532983#1" lines="taxi" />
    </person>
    <person id="105" depart="398">
        <ride from="280958022#1" to="102678319#2" lines="taxi" />
    </person>
    <person id="106" depart="399">
        <ride from="53561436#0" to="1432317802" lines="taxi" />
    </person>
    <person id="107" depart="399">
        <ride from="53561472#8" to="495024963#9" lines="taxi" />
    </person>
    <person id="108" depart="400">
        <ride from="1253111317" to="25717715" lines="taxi" />
    </person>
    <person id="109" depart="400">
        <ride from="-25718014#1" to="-25717814#1" lines="taxi" />
    </person>
    <person id="110" depart="400">
        <ride from="-888532983#0" to="-53561354" lines="taxi" />
    </person>
    <person id="111" depart="401">
        <ride from="884011753#2" to="886367121#5" lines="taxi" />
    </person>
    <person id="112" depart="403">
        <ride from="53561407" to="-371139407#3" lines="taxi" />
    </person>
    <person id="113" depart="403">
        <ride from="776320079#0" to="-280958022#1" lines="taxi" />
    </person>
    <person id="114" depart="405">
        <ride from="-25718014#1" to="344410516" lines="taxi" />
    </person>
    <person id="115" depart="405">
        <ride from="-857351219#0" to="775140683#2" lines="taxi" />
    </person>
    <person id="116" depart="405">
        <ride from="-371139407#3" to="371139406" lines="taxi" />
    </person>
    <person id="117" depart="406">
        <ride from="402934744#5" to="-102755442" lines="taxi" />
    </person>
    <person id="118" depart="407">
        <ride from="1253111317" to="207839154#0" lines="taxi" />
    </person>
    <person id="119" depart="408">
        <ride from="-371139407#2" to="776320079#1" lines="taxi" />
    </person>
    <person id="120" depart="408">
        <ride from="-344410516" to="-53561465#0" lines="taxi" />
    </person>
    <person id="121" depart="408">
        <ride from="344410516" to="-25718014#1" lines="taxi" />
    </person>
    <person id="122" depart="408">
        <ride from="-495024963#6" to="25717491" lines="taxi" />
    </person>
    <person id="123" depart="409">
        <ride from="25717715" to="776320079#0" lines="taxi" />
    </person>
    <person id="124" depart="409">
        <ride from="53561455#1" to="-25717491" lines="taxi" />
    </person>
    <person id="125" depart="409">
        <ride from="-25717852#1" to="776320079#1" lines="taxi" />
    </person>
    <person id="126" depart="410">
        <ride from="1253111317" to="-280958022#1" lines="taxi" />
    </person>
    <person id="127" depart="410">
        <ride from="410537375#4" to="1253111317" lines="taxi" />
    </person>
    <person id="128" depart="411">
        <ride from="-371130049#4" to="-888532983#0" lines="taxi" />
    </person>
    <person id="129" depart="411">
        <ride from="888532983#2" to="272078615#2" lines="taxi" />
    </person>
    <person id="130" depart="411">
        <ride from="53561436#0" to="410537374" lines="taxi" />
    </person>
    <person id="131" depart="413">
        <ride from="-495024963#6" to="53561466" lines="taxi" />
    </person>
    <person id="132" depart="413">
        <ride from="344412436#1" to="-53561466" lines="taxi" />
    </person>
    <person id="133" depart="414">
        <ride from="775140683#1" to="-495024963#6" lines="taxi" />
    </person>
    <person id="134" depart="415">
        <ride from="1157697968" to="102678329#1" lines="taxi" />
    </person>
    <person id="135" depart="415">
        <ride from="1157697968" to="-371139409" lines="taxi" />
    </person>
    <person id="136" depart="418">
        <ride from="-371139407#2" to="-53561465#0" lines="taxi" />
    </person>
    <person id="137" depart="418">
        <ride from="1253111317" to="-371128539#1" lines="taxi" />
    </person>
    <person id="138" depart="419">
        <ride from="495024961" to="272078615#1" lines="taxi" />
    </person>
    <person id="139" depart="419">
        <ride from="-25718014#1" to="207839154#0" lines="taxi" />
    </person>
    <person id="140" depart="419">
        <ride from="53561466" to="207839154#0" lines="taxi" />
    </person>
    <person id="141" depart="421">
        <ride from="371128537" to="1432317802" lines="taxi" />
    </person>
    <person id="142" depart="421">
        <ride from="886367121#5" to="1432317802" lines="taxi" />
    </person>
    <person id="143" depart="421">
        <ride from="-25717852#1" to="1253111326" lines="taxi" />
    </person>
    <person id="144" depart="422">
        <ride from="402934744#4" to="344412437#0" lines="taxi" />
    </person>
    <person id="145" depart="423">
        <ride from="53561468" to="371130049#4" lines="taxi" />
    </person>
    <person id="146" depart="423">
        <ride from="495024961" to="1391556998" lines="taxi" />
    </person>
    <person id="147" depart="424">
        <ride from="371139406" to="53561407" lines="taxi" />
    </person>
    <person id="148" depart="426">
        <ride from="-25718014#1" to="280958022#1" lines="taxi" />
    </person>
    <person id="149" depart="428">
        <ride from="371128542#0" to="1253111326" lines="taxi" />
    </person>
    <person id="150" depart="429">
        <ride from="-53561355#7" to="102678329#1" lines="taxi" />
    </person>
    <person id="151" depart="429">
        <ride from="884011753#2" to="-857351219#0" lines="taxi" />
    </person>
    <person id="152" depart="430">
        <ride from="371130049#4" to="-53561465#0" lines="taxi" />
    </person>
    <person id="153" depart="432">
        <ride from="344412437#0" to="410537375#4" lines="taxi" />
    </person>
    <person id="154" depart="432">
        <ride from="-53561354" to="-102755442" lines="taxi" />
    </person>
    <person id="155" depart="432">
        <ride from="210983363" to="776320079#1" lines="taxi" />
    </person>
    <person id="156" depart="433">
        <ride from="53561436#0" to="102678329#0" lines="taxi" />
    </person>
    <person id="157" depart="435">
        <ride from="884011753#2" to="-857351219#0" lines="taxi" />
    </person>
    <person id="158" depart="435">
        <ride from="884011753#4" to="843239339" lines="taxi" />
    </person>
    <person id="159" depart="436">
        <ride from="776320079#1" to="53561455#1" lines="taxi" />
    </person>
    <person id="160" depart="436">
        <ride from="102678329#0" to="776320079#0" lines="taxi" />
    </person>
    <person id="161" depart="438">
        <ride from="344412436#1" to="495024963#9" lines="taxi" />
    </person>
    <person id="162" depart="439">
        <ride from="495024963#9" to="25717422" lines="taxi" />
    </person>
    <person id="163" depart="440">
        <ride from="102678329#0" to="53561472#8" lines="taxi" />
    </person>
    <person id="164" depart="440">
        <ride from="776320079#0" to="-371130049#4" lines="taxi" />
    </person>
    <person id="165" depart="441">
        <ride from="402934744#4" to="-765885882#0" lines="taxi" />
    </person>
    <person id="166" depart="442">
        <ride from="495024963#9" to="775140683#1" lines="taxi" />
    </person>
    <person id="167" depart="442">
        <ride from="-280958022#1" to="-1291941910" lines="taxi" />
    </person>
    <person id="168" depart="442">
        <ride from="843239339" to="-371130049#4" lines="taxi" />
    </person>
    <person id="169" depart="444">
        <ride from="884011753#8" to="1391556998" lines="taxi" />
    </person>
    <person id="170" depart="445">
        <ride from="371139406" to="272078615#2" lines="taxi" />
    </person>
    <person id="171" depart="445">
        <ride from="53561407" to="371139406" lines="taxi" />
    </person>
    <person id="172" depart="445">
        <ride from="-53561465#0" to="-344410516" lines="taxi" />
    </person>
    <person id="173" depart="446">
        <ride from="344412436#0" to="25717422" lines="taxi" />
    </person>
    <person id="174" depart="448">
        <ride from="344412436#0" to="1253111326" lines="taxi" />
    </person>
    <person id="175" depart="448">
        <ride from="-25717852#1" to="-371130049#4" lines="taxi" />
    </person>
    <person id="176" depart="448">
        <ride from="-371139407#3" to="344412437#0" lines="taxi" />
    </person>
    <person id="177" depart="449">
        <ride from="272078615#1" to="-765885882#0" lines="taxi" />
    </person>
    <person id="178" depart="451">
        <ride from="371139406" to="272078615#1" lines="taxi" />
    </person>
    <person id="179" depart="453">
        <ride from="410537374" to="1432317802" lines="taxi" />
    </person>
    <person id="180" depart="454">
        <ride from="775140683#1" to="-888532983#0" lines="taxi" />
    </person>
    <person id="181" depart="454">
        <ride from="1253111326" to="102678319#2" lines="taxi" />
    </person>
    <person id="182" depart="457">
        <ride from="410537374" to="-344410516" lines="taxi" />
    </person>
    <person id="183" depart="458">
        <ride from="402934743#0" to="-25717855" lines="taxi" />
    </person>
    <person id="184" depart="459">
        <ride from="402934744#5" to="-495024963#6" lines="taxi" />
    </person>
    <person id="185" depart="460">
        <ride from="344410516" to="402934744#5" lines="taxi" />
    </person>
    <person id="186" depart="460">
        <ride from="1157843040" to="53561436#0" lines="taxi" />
    </person>
    <person id="187" depart="460">
        <ride from="53561472#8" to="-857351219#0" lines="taxi" />
    </person>
    <person id="188" depart="460">
        <ride from="402934743#0" to="888532983#1" lines="taxi" />
    </person>
    <person id="189" depart="462">
        <ride from="102678329#0" to="53561407" lines="taxi" />
    </person>
    <person id="190" depart="462">
        <ride from="-25717491" to="-371128539#1" lines="taxi" />
    </person>
    <person id="191" depart="462">
        <ride from="371130049#4" to="776320079#1" lines="taxi" />
    </person>
    <person id="192" depart="464">
        <ride from="-25717814#1" to="-371128539#1" lines="taxi" />
    </person>
    <person id="193" depart="466">
        <ride from="-102755442" to="-344410516" lines="taxi" />
    </person>
    <person id="194" depart="467">
        <ride from="1253111317" to="-371139407#2" lines="taxi" />
    </person>
    <person id="195" depart="467">
        <ride from="888532983#2" to="102678329#1" lines="taxi" />
    </person>
    <person id="196" depart="468">
        <ride from="402934744#5" to="272078615#1" lines="taxi" />
    </person>
    <person id="197" depart="469">
        <ride from="-25717491" to="-371130049#4" lines="taxi" />
    </person>
    <person id="198" depart="469">
        <ride from="-371139407#3" to="-53561465#0" lines="taxi" />
    </person>
    <person id="199" depart="469">
        <ride from="53561468" to="-371139407#3" lines="taxi" />
    </person>
    <person id="200" depart="470">
        <ride from="-280958022#1" to="495024963#9" lines="taxi" />
    </person>
    <person id="201" depart="470">
        <ride from="765885882#1" to="-1291941910" lines="taxi" />
    </person>
    <person id="202" depart="472">
        <ride from="888532983#1" to="-371130049#4" lines="taxi" />
    </person>
    <person id="203" depart="472">
        <ride from="-371139409" to="25717491" lines="taxi" />
    </person>
    <person id="204" depart="473">
        <ride from="1432317802" to="410537375#4" lines="taxi" />
    </person>
    <person id="205" depart="474">
        <ride from="1432317802" to="-25717814#1" lines="taxi" />
    </person>
    <person id="206" depart="474">
        <ride from="53561455#1" to="-371128539#1" lines="taxi" />
    </person>
    <person id="207" depart="476">
        <ride from="-495024963#8" to="53561407" lines="taxi" />
    </person>
    <person id="208" depart="476">
        <ride from="53561455#1" to="410537375#4" lines="taxi" />
    </person>
    <person id="209" depart="478">
        <ride from="495024963#9" to="410537374" lines="taxi" />
    </person>
    <person id="210" depart="479">
        <ride from="-888532983#0" to="402934744#5" lines="taxi" />
    </person>
    <person id="211" depart="479">
        <ride from="371130049#4" to="776320079#1" lines="taxi" />
    </person>
    <person id="212" depart="480">
        <ride from="344412437#0" to="53561436#0" lines="taxi" />
    </person>
    <person id="213" depart="480">
        <ride from="344412436#0" to="843239339" lines="taxi" />
    </person>
    <person id="214" depart="480">
        <ride from="776320079#0" to="25717422" lines="taxi" />
    </person>
    <person id="215" depart="480">
        <ride from="280958022#1" to="-25717491" lines="taxi" />
    </person>
    <person id="216" depart="480">
        <ride from="102678329#0" to="776320079#0" lines="taxi" />
    </person>
    <person id="217" depart="481">
        <ride from="25717715" to="1157843040" lines="taxi" />
    </person>
    <person id="218" depart="482">
        <ride from="-53561466" to="888532983#2" lines="taxi" />
    </person>
    <person id="219" depart="482">
        <ride from="371128537" to="371130049#4" lines="taxi" />
    </person>
    <person id="220" depart="482">
        <ride from="775140683#1" to="272078615#2" lines="taxi" />
    </person>
    <person id="221" depart="484">
        <ride from="1253111326" to="886367121#5" lines="taxi" />
    </person>
    <person id="222" depart="484">
        <ride from="1253111326" to="53561468" lines="taxi" />
    </person>
    <person id="223" depart="484">
        <ride from="53561407" to="210983363" lines="taxi" />
    </person>
    <person id="224" depart="485">
        <ride from="25717422" to="886367121#6" lines="taxi" />
    </person>
    <person id="225" depart="486">
        <ride from="344412437#0" to="-53561465#0" lines="taxi" />
    </person>
    <person id="226" depart="486">
        <ride from="1391556998" to="53561468" lines="taxi" />
    </person>
    <person id="227" depart="487">
        <ride from="495024961" to="-280958022#1" lines="taxi" />
    </person>
    <person id="228" depart="487">
        <ride from="776320079#1" to="-1291941910" lines="taxi" />
    </person>
    <person id="229" depart="487">
        <ride from="402934744#5" to="-53561466" lines="taxi" />
    </person>
    <person id="230" depart="487">
        <ride from="-25717855" to="1157843040" lines="taxi" />
    </person>
    <person id="231" depart="489">
        <ride from="371128542#0" to="53561467" lines="taxi" />
    </person>
    <person id="232" depart="490">
        <ride from="25717715" to="-371139409" lines="taxi" />
    </person>
    <person id="233" depart="490">
        <ride from="765885882#1" to="886367121#6" lines="taxi" />
    </person>
    <person id="234" depart="491">
        <ride from="25717715" to="410537374" lines="taxi" />
    </person>
    <person id="235" depart="492">
        <ride from="1391556998" to="888532983#2" lines="taxi" />
    </person>
    <person id="236" depart="494">
        <ride from="-765885882#0" to="-888532983#0" lines="taxi" />
    </person>
    <person id="237" depart="495">
        <ride from="775140683#2" to="888532983#1" lines="taxi" />
    </person>
    <person id="238" depart="495">
        <ride from="843239339" to="207839154#0" lines="taxi" />
    </person>
    <person id="239" depart="495">
        <ride from="-25717852#1" to="344412436#0" lines="taxi" />
    </person>
    <person id="240" depart="495">
        <ride from="843239339" to="888532983#2" lines="taxi" />
    </person>
    <person id="241" depart="495">
        <ride from="402934743#0" to="1253111323" lines="taxi" />
    </person>
    <person id="242" depart="496">
        <ride from="402934743#0" to="775140683#2" lines="taxi" />
    </person>
    <person id="243" depart="496">
        <ride from="1253111317" to="-888532983#0" lines="taxi" />
    </person>
    <person id="244" depart="496">
        <ride from="-888532983#0" to="25717715" lines="taxi" />
    </person>
    <person id="245" depart="498">
        <ride from="53561472#8" to="53561455#1" lines="taxi" />
    </person>
    <person id="246" depart="500">
        <ride from="371128537" to="495024961" lines="taxi" />
    </person>
    <person id="247" depart="503">
        <ride from="-371128539#1" to="25717422" lines="taxi" />
    </person>
    <person id="248" depart="504">
        <ride from="1253111317" to="1432317802" lines="taxi" />
    </person>
    <person id="249" depart="505">
        <ride from="843239339" to="-25717814#1" lines="taxi" />
    </person>
    <person id="250" depart="505">
        <ride from="775140683#1" to="53561436#0" lines="taxi" />
    </person>
    <person id="251" depart="507">
        <ride from="53561467" to="402934744#4" lines="taxi" />
    </person>
    <person id="252" depart="508">
        <ride from="371130049#4" to="53561466" lines="taxi" />
    </person>
    <person id="253" depart="510">
        <ride from="776320079#0" to="410537375#4" lines="taxi" />
    </person>
    <person id="254" depart="510">
        <ride from="25717422" to="207839154#0" lines="taxi" />
    </person>
    <person id="255" depart="510">
        <ride from="53561407" to="-25717422" lines="taxi" />
    </person>
    <person id="256" depart="511">
        <ride from="888532983#2" to="-53561355#7" lines="taxi" />
    </person>
    <person id="257" depart="511">
        <ride from="-495024963#6" to="775140683#2" lines="taxi" />
    </person>
    <person id="258" depart="513">
        <ride from="53561455#1" to="-371139407#2" lines="taxi" />
    </person>
    <person id="259" depart="513">
        <ride from="-25718014#1" to="886367121#6" lines="taxi" />
    </person>
    <person id="260" depart="514">
        <ride from="884011753#2" to="371128537" lines="taxi" />
    </person>
    <person id="261" depart="515">
        <ride from="-25717852#1" to="-371139407#2" lines="taxi" />
    </person>
    <person id="262" depart="516">
        <ride from="-25717855" to="-53561466" lines="taxi" />
    </person>